Progesterone
     RDKit          3D

 53 56  0  0  0  0  0  0  0  0999 V2000
    5.4063    1.1565    0.3699 C   0  0  0  0  0  0  0  0  0  0  0  0
    4.4409    1.1532   -0.7850 C   0  0  0  0  0  0  0  0  0  0  0  0
    4.5590    2.0294   -1.6284 O   0  0  0  0  0  0  0  0  0  0  0  0
    3.3144    0.1417   -0.9500 C   0  0  1  0  0  0  0  0  0  0  0  0
    3.6305   -1.3118   -0.5166 C   0  0  0  0  0  0  0  0  0  0  0  0
    2.3005   -1.9116   -0.0185 C   0  0  0  0  0  0  0  0  0  0  0  0
    1.2521   -0.8644   -0.3894 C   0  0  2  0  0  0  0  0  0  0  0  0
    1.9857    0.4831   -0.2372 C   0  0  2  0  0  0  0  0  0  0  0  0
    1.1402    1.5752   -0.9321 C   0  0  0  0  0  0  0  0  0  0  0  0
   -0.2994    1.6325   -0.3585 C   0  0  0  0  0  0  0  0  0  0  0  0
   -1.0027    0.2404   -0.3705 C   0  0  1  0  0  0  0  0  0  0  0  0
   -0.1244   -0.8625    0.3132 C   0  0  1  0  0  0  0  0  0  0  0  0
   -0.8175   -2.2569    0.3262 C   0  0  0  0  0  0  0  0  0  0  0  0
   -2.1486   -2.3249   -0.4344 C   0  0  0  0  0  0  0  0  0  0  0  0
   -3.0649   -1.1605   -0.1216 C   0  0  0  0  0  0  0  0  0  0  0  0
   -4.3898   -1.3351   -0.2666 C   0  0  0  0  0  0  0  0  0  0  0  0
   -5.3275   -0.2025   -0.2546 C   0  0  0  0  0  0  0  0  0  0  0  0
   -6.5669   -0.4253   -0.2737 O   0  0  0  0  0  0  0  0  0  0  0  0
   -4.8337    1.2130   -0.2216 C   0  0  0  0  0  0  0  0  0  0  0  0
   -3.3354    1.3039   -0.5561 C   0  0  0  0  0  0  0  0  0  0  0  0
   -2.4777    0.2240    0.1726 C   0  0  2  0  0  0  0  0  0  0  0  0
   -2.5266    0.4722    1.7031 C   0  0  0  0  0  0  0  0  0  0  0  0
    2.2564    0.8915    1.2478 C   0  0  0  0  0  0  0  0  0  0  0  0
    5.0950    0.4855    1.1919 H   0  0  0  0  0  0  0  0  0  0  0  0
    5.4768    2.1827    0.7881 H   0  0  0  0  0  0  0  0  0  0  0  0
    6.4100    0.8473    0.0113 H   0  0  0  0  0  0  0  0  0  0  0  0
    3.1058    0.0914   -2.0455 H   0  0  0  0  0  0  0  0  0  0  0  0
    4.3836   -1.3776    0.2924 H   0  0  0  0  0  0  0  0  0  0  0  0
    4.0149   -1.8908   -1.3850 H   0  0  0  0  0  0  0  0  0  0  0  0
    2.1028   -2.8828   -0.5214 H   0  0  0  0  0  0  0  0  0  0  0  0
    2.3242   -2.0700    1.0815 H   0  0  0  0  0  0  0  0  0  0  0  0
    1.0417   -1.0384   -1.4739 H   0  0  0  0  0  0  0  0  0  0  0  0
    1.0785    1.3714   -2.0241 H   0  0  0  0  0  0  0  0  0  0  0  0
    1.6258    2.5678   -0.8111 H   0  0  0  0  0  0  0  0  0  0  0  0
   -0.2872    2.0576    0.6641 H   0  0  0  0  0  0  0  0  0  0  0  0
   -0.8634    2.3444   -0.9956 H   0  0  0  0  0  0  0  0  0  0  0  0
   -1.0729   -0.0242   -1.4521 H   0  0  0  0  0  0  0  0  0  0  0  0
    0.0399   -0.5964    1.3742 H   0  0  0  0  0  0  0  0  0  0  0  0
   -1.0168   -2.5448    1.3825 H   0  0  0  0  0  0  0  0  0  0  0  0
   -0.1559   -3.0464   -0.0840 H   0  0  0  0  0  0  0  0  0  0  0  0
   -1.9459   -2.3325   -1.5272 H   0  0  0  0  0  0  0  0  0  0  0  0
   -2.6416   -3.2894   -0.1800 H   0  0  0  0  0  0  0  0  0  0  0  0
   -4.7879   -2.3211   -0.4771 H   0  0  0  0  0  0  0  0  0  0  0  0
   -5.0303    1.6441    0.7827 H   0  0  0  0  0  0  0  0  0  0  0  0
   -5.4042    1.8175   -0.9595 H   0  0  0  0  0  0  0  0  0  0  0  0
   -2.9956    2.3251   -0.2816 H   0  0  0  0  0  0  0  0  0  0  0  0
   -3.2139    1.1907   -1.6567 H   0  0  0  0  0  0  0  0  0  0  0  0
   -1.9718   -0.3038    2.2662 H   0  0  0  0  0  0  0  0  0  0  0  0
   -2.1110    1.4680    1.9601 H   0  0  0  0  0  0  0  0  0  0  0  0
   -3.5674    0.4295    2.0840 H   0  0  0  0  0  0  0  0  0  0  0  0
    2.8275    1.8423    1.2859 H   0  0  0  0  0  0  0  0  0  0  0  0
    2.8344    0.1176    1.7915 H   0  0  0  0  0  0  0  0  0  0  0  0
    1.3342    1.0744    1.8286 H   0  0  0  0  0  0  0  0  0  0  0  0
  1  2  1  0
  2  3  2  0
  2  4  1  0
  4  5  1  0
  5  6  1  0
  6  7  1  0
  7  8  1  0
  8  9  1  0
  9 10  1  0
 10 11  1  0
 11 12  1  0
 12 13  1  0
 13 14  1  0
 14 15  1  0
 15 16  2  0
 16 17  1  0
 17 18  2  0
 17 19  1  0
 19 20  1  0
 20 21  1  0
 21 22  1  1
  8 23  1  1
  8  4  1  0
 12  7  1  0
 21 11  1  0
 21 15  1  0
  1 24  1  0
  1 25  1  0
  1 26  1  0
  4 27  1  6
  5 28  1  0
  5 29  1  0
  6 30  1  0
  6 31  1  0
  7 32  1  6
  9 33  1  0
  9 34  1  0
 10 35  1  0
 10 36  1  0
 11 37  1  6
 12 38  1  1
 13 39  1  0
 13 40  1  0
 14 41  1  0
 14 42  1  0
 16 43  1  0
 19 44  1  0
 19 45  1  0
 20 46  1  0
 20 47  1  0
 22 48  1  0
 22 49  1  0
 22 50  1  0
 23 51  1  0
 23 52  1  0
 23 53  1  0
M  END
$$$$
