Progesterone
     RDKit          3D

 53 56  0  0  0  0  0  0  0  0999 V2000
    5.2788    0.6933   -1.3606 C   0  0  0  0  0  0  0  0  0  0  0  0
    4.6506    0.1803   -0.0989 C   0  0  0  0  0  0  0  0  0  0  0  0
    5.1675    0.4619    0.9724 O   0  0  0  0  0  0  0  0  0  0  0  0
    3.3843   -0.6573   -0.1475 C   0  0  1  0  0  0  0  0  0  0  0  0
    3.3432   -1.8030    0.8936 C   0  0  0  0  0  0  0  0  0  0  0  0
    1.8681   -1.9586    1.3096 C   0  0  0  0  0  0  0  0  0  0  0  0
    1.1099   -1.0468    0.3508 C   0  0  2  0  0  0  0  0  0  0  0  0
    2.0692    0.1219    0.0865 C   0  0  2  0  0  0  0  0  0  0  0  0
    1.5488    0.8873   -1.1492 C   0  0  0  0  0  0  0  0  0  0  0  0
    0.1009    1.3873   -0.9291 C   0  0  0  0  0  0  0  0  0  0  0  0
   -0.8835    0.2593   -0.4747 C   0  0  1  0  0  0  0  0  0  0  0  0
   -0.3143   -0.5803    0.7197 C   0  0  1  0  0  0  0  0  0  0  0  0
   -1.2306   -1.7858    0.9879 C   0  0  0  0  0  0  0  0  0  0  0  0
   -2.6399   -1.3266    1.3504 C   0  0  0  0  0  0  0  0  0  0  0  0
   -3.2071   -0.4148    0.2872 C   0  0  0  0  0  0  0  0  0  0  0  0
   -4.5066   -0.5433   -0.0393 C   0  0  0  0  0  0  0  0  0  0  0  0
   -5.1751    0.3831   -0.9620 C   0  0  0  0  0  0  0  0  0  0  0  0
   -6.3853    0.2007   -1.2595 O   0  0  0  0  0  0  0  0  0  0  0  0
   -4.4524    1.5762   -1.4968 C   0  0  0  0  0  0  0  0  0  0  0  0
   -2.9462    1.3081   -1.5605 C   0  0  0  0  0  0  0  0  0  0  0  0
   -2.3580    0.7629   -0.2179 C   0  0  2  0  0  0  0  0  0  0  0  0
   -2.4040    1.8833    0.8530 C   0  0  0  0  0  0  0  0  0  0  0  0
    2.2191    1.0969    1.3004 C   0  0  0  0  0  0  0  0  0  0  0  0
    5.3359    1.8012   -1.3214 H   0  0  0  0  0  0  0  0  0  0  0  0
    4.6864    0.4041   -2.2538 H   0  0  0  0  0  0  0  0  0  0  0  0
    6.3037    0.2789   -1.4606 H   0  0  0  0  0  0  0  0  0  0  0  0
    3.3340   -1.1372   -1.1526 H   0  0  0  0  0  0  0  0  0  0  0  0
    3.9541   -1.5749    1.7937 H   0  0  0  0  0  0  0  0  0  0  0  0
    3.7235   -2.7453    0.4418 H   0  0  0  0  0  0  0  0  0  0  0  0
    1.7199   -1.6294    2.3613 H   0  0  0  0  0  0  0  0  0  0  0  0
    1.5349   -3.0144    1.2073 H   0  0  0  0  0  0  0  0  0  0  0  0
    1.0065   -1.6379   -0.5937 H   0  0  0  0  0  0  0  0  0  0  0  0
    1.5658    0.2283   -2.0455 H   0  0  0  0  0  0  0  0  0  0  0  0
    2.2107    1.7536   -1.3666 H   0  0  0  0  0  0  0  0  0  0  0  0
    0.1129    2.2181   -0.1974 H   0  0  0  0  0  0  0  0  0  0  0  0
   -0.2407    1.8162   -1.8933 H   0  0  0  0  0  0  0  0  0  0  0  0
   -0.9400   -0.4427   -1.3394 H   0  0  0  0  0  0  0  0  0  0  0  0
   -0.2759    0.0191    1.6496 H   0  0  0  0  0  0  0  0  0  0  0  0
   -1.2749   -2.4458    0.0930 H   0  0  0  0  0  0  0  0  0  0  0  0
   -0.8317   -2.3839    1.8354 H   0  0  0  0  0  0  0  0  0  0  0  0
   -2.6183   -0.7826    2.3192 H   0  0  0  0  0  0  0  0  0  0  0  0
   -3.2718   -2.2316    1.4894 H   0  0  0  0  0  0  0  0  0  0  0  0
   -5.0975   -1.3474    0.3838 H   0  0  0  0  0  0  0  0  0  0  0  0
   -4.8229    1.8109   -2.5183 H   0  0  0  0  0  0  0  0  0  0  0  0
   -4.6621    2.4530   -0.8487 H   0  0  0  0  0  0  0  0  0  0  0  0
   -2.7645    0.5732   -2.3764 H   0  0  0  0  0  0  0  0  0  0  0  0
   -2.4483    2.2566   -1.8533 H   0  0  0  0  0  0  0  0  0  0  0  0
   -3.4514    2.0954    1.1556 H   0  0  0  0  0  0  0  0  0  0  0  0
   -1.8549    1.5984    1.7718 H   0  0  0  0  0  0  0  0  0  0  0  0
   -1.9741    2.8308    0.4673 H   0  0  0  0  0  0  0  0  0  0  0  0
    1.2649    1.5632    1.6072 H   0  0  0  0  0  0  0  0  0  0  0  0
    2.9018    1.9323    1.0376 H   0  0  0  0  0  0  0  0  0  0  0  0
    2.6363    0.5840    2.1914 H   0  0  0  0  0  0  0  0  0  0  0  0
  1  2  1  0
  2  3  2  0
  2  4  1  0
  4  5  1  0
  5  6  1  0
  6  7  1  0
  7  8  1  0
  8  9  1  0
  9 10  1  0
 10 11  1  0
 11 12  1  0
 12 13  1  0
 13 14  1  0
 14 15  1  0
 15 16  2  0
 16 17  1  0
 17 18  2  0
 17 19  1  0
 19 20  1  0
 20 21  1  0
 21 22  1  1
  8 23  1  1
  8  4  1  0
 12  7  1  0
 21 11  1  0
 21 15  1  0
  1 24  1  0
  1 25  1  0
  1 26  1  0
  4 27  1  6
  5 28  1  0
  5 29  1  0
  6 30  1  0
  6 31  1  0
  7 32  1  6
  9 33  1  0
  9 34  1  0
 10 35  1  0
 10 36  1  0
 11 37  1  6
 12 38  1  1
 13 39  1  0
 13 40  1  0
 14 41  1  0
 14 42  1  0
 16 43  1  0
 19 44  1  0
 19 45  1  0
 20 46  1  0
 20 47  1  0
 22 48  1  0
 22 49  1  0
 22 50  1  0
 23 51  1  0
 23 52  1  0
 23 53  1  0
M  END
$$$$
