Progesterone
     RDKit          3D

 53 56  0  0  0  0  0  0  0  0999 V2000
    5.5851   -1.3425   -0.0154 C   0  0  0  0  0  0  0  0  0  0  0  0
    4.3416   -1.3958    0.8251 C   0  0  0  0  0  0  0  0  0  0  0  0
    4.1310   -2.3990    1.4909 O   0  0  0  0  0  0  0  0  0  0  0  0
    3.3371   -0.2541    0.8897 C   0  0  1  0  0  0  0  0  0  0  0  0
    3.7242    1.0432    0.1313 C   0  0  0  0  0  0  0  0  0  0  0  0
    2.4070    1.6715   -0.3598 C   0  0  0  0  0  0  0  0  0  0  0  0
    1.3190    0.8089    0.2691 C   0  0  2  0  0  0  0  0  0  0  0  0
    1.9299   -0.5974    0.3471 C   0  0  2  0  0  0  0  0  0  0  0  0
    1.0510   -1.4362    1.3017 C   0  0  0  0  0  0  0  0  0  0  0  0
   -0.4175   -1.4847    0.8166 C   0  0  0  0  0  0  0  0  0  0  0  0
   -1.0285   -0.0717    0.5412 C   0  0  1  0  0  0  0  0  0  0  0  0
   -0.0941    0.8138   -0.3513 C   0  0  1  0  0  0  0  0  0  0  0  0
   -0.6530    2.2446   -0.4246 C   0  0  0  0  0  0  0  0  0  0  0  0
   -2.0501    2.2509   -1.0379 C   0  0  0  0  0  0  0  0  0  0  0  0
   -2.9785    1.3234   -0.2892 C   0  0  0  0  0  0  0  0  0  0  0  0
   -4.2501    1.7162   -0.0875 C   0  0  0  0  0  0  0  0  0  0  0  0
   -5.2559    0.8294    0.5112 C   0  0  0  0  0  0  0  0  0  0  0  0
   -6.4248    1.2556    0.7075 O   0  0  0  0  0  0  0  0  0  0  0  0
   -4.9226   -0.5920    0.8288 C   0  0  0  0  0  0  0  0  0  0  0  0
   -3.4267   -0.7406    1.1198 C   0  0  0  0  0  0  0  0  0  0  0  0
   -2.5170   -0.1110    0.0146 C   0  0  2  0  0  0  0  0  0  0  0  0
   -2.6437   -0.9430   -1.2877 C   0  0  0  0  0  0  0  0  0  0  0  0
    2.0530   -1.3085   -1.0407 C   0  0  0  0  0  0  0  0  0  0  0  0
    5.3122   -1.2942   -1.0903 H   0  0  0  0  0  0  0  0  0  0  0  0
    6.2043   -2.2508    0.1466 H   0  0  0  0  0  0  0  0  0  0  0  0
    6.1908   -0.4544    0.2597 H   0  0  0  0  0  0  0  0  0  0  0  0
    3.2452    0.0186    1.9669 H   0  0  0  0  0  0  0  0  0  0  0  0
    4.3655    0.8474   -0.7522 H   0  0  0  0  0  0  0  0  0  0  0  0
    4.2628    1.7394    0.8105 H   0  0  0  0  0  0  0  0  0  0  0  0
    2.3429    1.6321   -1.4694 H   0  0  0  0  0  0  0  0  0  0  0  0
    2.3223    2.7292   -0.0276 H   0  0  0  0  0  0  0  0  0  0  0  0
    1.2029    1.1998    1.3110 H   0  0  0  0  0  0  0  0  0  0  0  0
    1.4445   -2.4728    1.3739 H   0  0  0  0  0  0  0  0  0  0  0  0
    1.0751   -1.0030    2.3262 H   0  0  0  0  0  0  0  0  0  0  0  0
   -1.0006   -1.9968    1.6089 H   0  0  0  0  0  0  0  0  0  0  0  0
   -0.4781   -2.1225   -0.0862 H   0  0  0  0  0  0  0  0  0  0  0  0
   -1.0624    0.4300    1.5367 H   0  0  0  0  0  0  0  0  0  0  0  0
   -0.0419    0.4242   -1.3863 H   0  0  0  0  0  0  0  0  0  0  0  0
   -0.6924    2.6976    0.5912 H   0  0  0  0  0  0  0  0  0  0  0  0
    0.0062    2.8778   -1.0565 H   0  0  0  0  0  0  0  0  0  0  0  0
   -1.9939    1.9266   -2.0994 H   0  0  0  0  0  0  0  0  0  0  0  0
   -2.4261    3.2978   -1.0277 H   0  0  0  0  0  0  0  0  0  0  0  0
   -4.5636    2.7139   -0.3726 H   0  0  0  0  0  0  0  0  0  0  0  0
   -5.2161   -1.2369   -0.0260 H   0  0  0  0  0  0  0  0  0  0  0  0
   -5.5006   -0.9220    1.7192 H   0  0  0  0  0  0  0  0  0  0  0  0
   -3.2131   -1.8242    1.2379 H   0  0  0  0  0  0  0  0  0  0  0  0
   -3.2192   -0.2536    2.0991 H   0  0  0  0  0  0  0  0  0  0  0  0
   -1.8976   -0.6363   -2.0467 H   0  0  0  0  0  0  0  0  0  0  0  0
   -2.5172   -2.0275   -1.0895 H   0  0  0  0  0  0  0  0  0  0  0  0
   -3.6460   -0.8060   -1.7464 H   0  0  0  0  0  0  0  0  0  0  0  0
    2.7040   -0.7423   -1.7379 H   0  0  0  0  0  0  0  0  0  0  0  0
    1.0797   -1.4520   -1.5446 H   0  0  0  0  0  0  0  0  0  0  0  0
    2.4941   -2.3200   -0.9157 H   0  0  0  0  0  0  0  0  0  0  0  0
  1  2  1  0
  2  3  2  0
  2  4  1  0
  4  5  1  0
  5  6  1  0
  6  7  1  0
  7  8  1  0
  8  9  1  0
  9 10  1  0
 10 11  1  0
 11 12  1  0
 12 13  1  0
 13 14  1  0
 14 15  1  0
 15 16  2  0
 16 17  1  0
 17 18  2  0
 17 19  1  0
 19 20  1  0
 20 21  1  0
 21 22  1  6
  8 23  1  6
  8  4  1  0
 12  7  1  0
 21 11  1  0
 21 15  1  0
  1 24  1  0
  1 25  1  0
  1 26  1  0
  4 27  1  1
  5 28  1  0
  5 29  1  0
  6 30  1  0
  6 31  1  0
  7 32  1  1
  9 33  1  0
  9 34  1  0
 10 35  1  0
 10 36  1  0
 11 37  1  1
 12 38  1  6
 13 39  1  0
 13 40  1  0
 14 41  1  0
 14 42  1  0
 16 43  1  0
 19 44  1  0
 19 45  1  0
 20 46  1  0
 20 47  1  0
 22 48  1  0
 22 49  1  0
 22 50  1  0
 23 51  1  0
 23 52  1  0
 23 53  1  0
M  END
$$$$
