Progesterone
     RDKit          3D

 53 56  0  0  0  0  0  0  0  0999 V2000
   -5.8360   -0.5107    0.2204 C   0  0  0  0  0  0  0  0  0  0  0  0
   -4.5173   -0.9712   -0.3385 C   0  0  0  0  0  0  0  0  0  0  0  0
   -4.3618   -2.1673   -0.5346 O   0  0  0  0  0  0  0  0  0  0  0  0
   -3.3862   -0.0141   -0.6957 C   0  0  1  0  0  0  0  0  0  0  0  0
   -3.5673    1.4480   -0.2099 C   0  0  0  0  0  0  0  0  0  0  0  0
   -2.1569    1.9995    0.0654 C   0  0  0  0  0  0  0  0  0  0  0  0
   -1.2214    0.8964   -0.4131 C   0  0  2  0  0  0  0  0  0  0  0  0
   -1.9893   -0.4083   -0.1535 C   0  0  2  0  0  0  0  0  0  0  0  0
   -1.2762   -1.5316   -0.9407 C   0  0  0  0  0  0  0  0  0  0  0  0
    0.2086   -1.6556   -0.5234 C   0  0  0  0  0  0  0  0  0  0  0  0
    0.9906   -0.3035   -0.5959 C   0  0  1  0  0  0  0  0  0  0  0  0
    0.2266    0.8607    0.1205 C   0  0  1  0  0  0  0  0  0  0  0  0
    0.9421    2.1928   -0.1597 C   0  0  0  0  0  0  0  0  0  0  0  0
    2.3732    2.1641    0.3700 C   0  0  0  0  0  0  0  0  0  0  0  0
    3.1393    0.9851   -0.1848 C   0  0  0  0  0  0  0  0  0  0  0  0
    4.4365    1.1588   -0.5024 C   0  0  0  0  0  0  0  0  0  0  0  0
    5.2949    0.0437   -0.9214 C   0  0  0  0  0  0  0  0  0  0  0  0
    6.4997    0.2635   -1.2174 O   0  0  0  0  0  0  0  0  0  0  0  0
    4.7717   -1.3572   -0.9381 C   0  0  0  0  0  0  0  0  0  0  0  0
    3.2521   -1.3679   -1.1258 C   0  0  0  0  0  0  0  0  0  0  0  0
    2.4997   -0.4118   -0.1439 C   0  0  2  0  0  0  0  0  0  0  0  0
    2.6282   -0.9566    1.3021 C   0  0  0  0  0  0  0  0  0  0  0  0
   -2.0900   -0.7882    1.3609 C   0  0  0  0  0  0  0  0  0  0  0  0
   -5.7950   -0.5237    1.3338 H   0  0  0  0  0  0  0  0  0  0  0  0
   -6.6534   -1.1902   -0.1191 H   0  0  0  0  0  0  0  0  0  0  0  0
   -6.0877    0.5101   -0.1388 H   0  0  0  0  0  0  0  0  0  0  0  0
   -3.3394    0.0085   -1.8090 H   0  0  0  0  0  0  0  0  0  0  0  0
   -4.1522    1.5028    0.7337 H   0  0  0  0  0  0  0  0  0  0  0  0
   -4.0819    2.0524   -0.9887 H   0  0  0  0  0  0  0  0  0  0  0  0
   -1.9821    2.9448   -0.4942 H   0  0  0  0  0  0  0  0  0  0  0  0
   -2.0139    2.1872    1.1527 H   0  0  0  0  0  0  0  0  0  0  0  0
   -1.1411    1.0404   -1.5197 H   0  0  0  0  0  0  0  0  0  0  0  0
   -1.7818   -2.5052   -0.7671 H   0  0  0  0  0  0  0  0  0  0  0  0
   -1.3245   -1.3252   -2.0328 H   0  0  0  0  0  0  0  0  0  0  0  0
    0.2608   -2.0879    0.4954 H   0  0  0  0  0  0  0  0  0  0  0  0
    0.6742   -2.3951   -1.2072 H   0  0  0  0  0  0  0  0  0  0  0  0
    1.0086   -0.0359   -1.6783 H   0  0  0  0  0  0  0  0  0  0  0  0
    0.2098    0.7151    1.2175 H   0  0  0  0  0  0  0  0  0  0  0  0
    0.9581    2.3984   -1.2527 H   0  0  0  0  0  0  0  0  0  0  0  0
    0.4029    3.0276    0.3353 H   0  0  0  0  0  0  0  0  0  0  0  0
    2.8597    3.1277    0.0996 H   0  0  0  0  0  0  0  0  0  0  0  0
    2.3587    2.0950    1.4795 H   0  0  0  0  0  0  0  0  0  0  0  0
    4.8818    2.1453   -0.4513 H   0  0  0  0  0  0  0  0  0  0  0  0
    5.0474   -1.8623    0.0127 H   0  0  0  0  0  0  0  0  0  0  0  0
    5.2451   -1.9211   -1.7717 H   0  0  0  0  0  0  0  0  0  0  0  0
    3.0353   -1.0742   -2.1769 H   0  0  0  0  0  0  0  0  0  0  0  0
    2.9089   -2.4150   -0.9957 H   0  0  0  0  0  0  0  0  0  0  0  0
    2.3556   -2.0317    1.3570 H   0  0  0  0  0  0  0  0  0  0  0  0
    1.9880   -0.3958    2.0121 H   0  0  0  0  0  0  0  0  0  0  0  0
    3.6740   -0.8628    1.6672 H   0  0  0  0  0  0  0  0  0  0  0  0
   -2.6418   -0.0220    1.9450 H   0  0  0  0  0  0  0  0  0  0  0  0
   -1.1018   -0.9251    1.8403 H   0  0  0  0  0  0  0  0  0  0  0  0
   -2.6332   -1.7508    1.4803 H   0  0  0  0  0  0  0  0  0  0  0  0
  1  2  1  0
  2  3  2  0
  2  4  1  0
  4  5  1  0
  5  6  1  0
  6  7  1  0
  7  8  1  0
  8  9  1  0
  9 10  1  0
 10 11  1  0
 11 12  1  0
 12 13  1  0
 13 14  1  0
 14 15  1  0
 15 16  2  0
 16 17  1  0
 17 18  2  0
 17 19  1  0
 19 20  1  0
 20 21  1  0
 21 22  1  1
  8 23  1  1
  8  4  1  0
 12  7  1  0
 21 11  1  0
 21 15  1  0
  1 24  1  0
  1 25  1  0
  1 26  1  0
  4 27  1  6
  5 28  1  0
  5 29  1  0
  6 30  1  0
  6 31  1  0
  7 32  1  6
  9 33  1  0
  9 34  1  0
 10 35  1  0
 10 36  1  0
 11 37  1  6
 12 38  1  1
 13 39  1  0
 13 40  1  0
 14 41  1  0
 14 42  1  0
 16 43  1  0
 19 44  1  0
 19 45  1  0
 20 46  1  0
 20 47  1  0
 22 48  1  0
 22 49  1  0
 22 50  1  0
 23 51  1  0
 23 52  1  0
 23 53  1  0
M  END
$$$$
