Progesterone
     RDKit          3D

 53 56  0  0  0  0  0  0  0  0999 V2000
    5.6987   -0.6581    0.5773 C   0  0  0  0  0  0  0  0  0  0  0  0
    4.4047   -0.6460    1.3409 C   0  0  0  0  0  0  0  0  0  0  0  0
    4.2578   -1.4475    2.2514 O   0  0  0  0  0  0  0  0  0  0  0  0
    3.2765    0.3307    1.0412 C   0  0  1  0  0  0  0  0  0  0  0  0
    3.5788    1.4220   -0.0194 C   0  0  0  0  0  0  0  0  0  0  0  0
    2.2405    1.7385   -0.7140 C   0  0  0  0  0  0  0  0  0  0  0  0
    1.2069    0.9364    0.0713 C   0  0  2  0  0  0  0  0  0  0  0  0
    1.9676   -0.3207    0.5379 C   0  0  2  0  0  0  0  0  0  0  0  0
    1.1213   -1.0185    1.6286 C   0  0  0  0  0  0  0  0  0  0  0  0
   -0.3015   -1.3589    1.1156 C   0  0  0  0  0  0  0  0  0  0  0  0
   -1.0284   -0.1200    0.5101 C   0  0  1  0  0  0  0  0  0  0  0  0
   -0.1529    0.5907   -0.5768 C   0  0  1  0  0  0  0  0  0  0  0  0
   -0.8681    1.8191   -1.2129 C   0  0  0  0  0  0  0  0  0  0  0  0
   -2.2153    2.1844   -0.5755 C   0  0  0  0  0  0  0  0  0  0  0  0
   -3.1065    0.9801   -0.3547 C   0  0  0  0  0  0  0  0  0  0  0  0
   -4.4367    1.1697   -0.3169 C   0  0  0  0  0  0  0  0  0  0  0  0
   -5.3561    0.1254    0.1589 C   0  0  0  0  0  0  0  0  0  0  0  0
   -6.5990    0.3054    0.0639 O   0  0  0  0  0  0  0  0  0  0  0  0
   -4.8395   -1.1492    0.7562 C   0  0  0  0  0  0  0  0  0  0  0  0
   -3.3475   -1.0489    1.1151 C   0  0  0  0  0  0  0  0  0  0  0  0
   -2.4914   -0.3787   -0.0033 C   0  0  2  0  0  0  0  0  0  0  0  0
   -2.5034   -1.2749   -1.2694 C   0  0  0  0  0  0  0  0  0  0  0  0
    2.2915   -1.3341   -0.6108 C   0  0  0  0  0  0  0  0  0  0  0  0
    6.3992   -1.4053    1.0080 H   0  0  0  0  0  0  0  0  0  0  0  0
    5.5086   -0.9304   -0.4817 H   0  0  0  0  0  0  0  0  0  0  0  0
    6.1792    0.3411    0.6303 H   0  0  0  0  0  0  0  0  0  0  0  0
    3.0635    0.8618    1.9982 H   0  0  0  0  0  0  0  0  0  0  0  0
    4.2981    1.0800   -0.7916 H   0  0  0  0  0  0  0  0  0  0  0  0
    3.9934    2.3297    0.4712 H   0  0  0  0  0  0  0  0  0  0  0  0
    2.0294    2.8288   -0.6682 H   0  0  0  0  0  0  0  0  0  0  0  0
    2.2599    1.4151   -1.7778 H   0  0  0  0  0  0  0  0  0  0  0  0
    0.9711    1.5646    0.9658 H   0  0  0  0  0  0  0  0  0  0  0  0
    1.6203   -1.9535    1.9626 H   0  0  0  0  0  0  0  0  0  0  0  0
    1.0306   -0.3579    2.5193 H   0  0  0  0  0  0  0  0  0  0  0  0
   -0.2540   -2.1845    0.3785 H   0  0  0  0  0  0  0  0  0  0  0  0
   -0.8688   -1.7389    1.9899 H   0  0  0  0  0  0  0  0  0  0  0  0
   -1.1260    0.5898    1.3653 H   0  0  0  0  0  0  0  0  0  0  0  0
    0.0408   -0.1120   -1.4090 H   0  0  0  0  0  0  0  0  0  0  0  0
   -0.2277    2.7240   -1.1868 H   0  0  0  0  0  0  0  0  0  0  0  0
   -1.0505    1.6058   -2.2897 H   0  0  0  0  0  0  0  0  0  0  0  0
   -2.7180    2.9269   -1.2344 H   0  0  0  0  0  0  0  0  0  0  0  0
   -2.0353    2.6766    0.4047 H   0  0  0  0  0  0  0  0  0  0  0  0
   -4.8545    2.1384   -0.5661 H   0  0  0  0  0  0  0  0  0  0  0  0
   -5.4160   -1.3823    1.6774 H   0  0  0  0  0  0  0  0  0  0  0  0
   -5.0077   -1.9813    0.0406 H   0  0  0  0  0  0  0  0  0  0  0  0
   -3.2513   -0.4613    2.0555 H   0  0  0  0  0  0  0  0  0  0  0  0
   -2.9862   -2.0787    1.3213 H   0  0  0  0  0  0  0  0  0  0  0  0
   -3.5362   -1.4268   -1.6442 H   0  0  0  0  0  0  0  0  0  0  0  0
   -1.9472   -0.8132   -2.1088 H   0  0  0  0  0  0  0  0  0  0  0  0
   -2.0685   -2.2729   -1.0567 H   0  0  0  0  0  0  0  0  0  0  0  0
    2.8910   -0.8682   -1.4192 H   0  0  0  0  0  0  0  0  0  0  0  0
    1.3903   -1.7711   -1.0783 H   0  0  0  0  0  0  0  0  0  0  0  0
    2.8745   -2.1913   -0.2133 H   0  0  0  0  0  0  0  0  0  0  0  0
  1  2  1  0
  2  3  2  0
  2  4  1  0
  4  5  1  0
  5  6  1  0
  6  7  1  0
  7  8  1  0
  8  9  1  0
  9 10  1  0
 10 11  1  0
 11 12  1  0
 12 13  1  0
 13 14  1  0
 14 15  1  0
 15 16  2  0
 16 17  1  0
 17 18  2  0
 17 19  1  0
 19 20  1  0
 20 21  1  0
 21 22  1  6
  8 23  1  6
  8  4  1  0
 12  7  1  0
 21 11  1  0
 21 15  1  0
  1 24  1  0
  1 25  1  0
  1 26  1  0
  4 27  1  1
  5 28  1  0
  5 29  1  0
  6 30  1  0
  6 31  1  0
  7 32  1  1
  9 33  1  0
  9 34  1  0
 10 35  1  0
 10 36  1  0
 11 37  1  1
 12 38  1  6
 13 39  1  0
 13 40  1  0
 14 41  1  0
 14 42  1  0
 16 43  1  0
 19 44  1  0
 19 45  1  0
 20 46  1  0
 20 47  1  0
 22 48  1  0
 22 49  1  0
 22 50  1  0
 23 51  1  0
 23 52  1  0
 23 53  1  0
M  END
$$$$
